**
** Heading +++++++++++++++++++++++++++++++++++++++++++++++++
**
*Heading
Hash: fKZd360B, Date: 07/23/2024, Unit system: MM_TON_S_C
**
** Nodes +++++++++++++++++++++++++++++++++++++++++++++++++++
**
*Node
1, 3.30000000E+001, 0.00000000E+000, 0.00000000E+000
2, 3.30000000E+001, 0.00000000E+000, 1.00000000E+002
3, -3.30000000E+001, 4.00000000E-015, 0.00000000E+000
4, -3.30000000E+001, 4.00000000E-015, 1.00000000E+002
5, 3.30000000E+001, -4.00000000E-015, 1.00000000E+000
6, 3.30000000E+001, -4.00000000E-015, 1.90000000E+000
7, 3.30000000E+001, -4.00000000E-015, 2.80000000E+000
8, 3.30000000E+001, -4.00000000E-015, 3.70000000E+000
9, 3.30000000E+001, -4.00000000E-015, 4.60000000E+000
10, 3.30000000E+001, -4.00000000E-015, 5.50000000E+000
11, 3.30000000E+001, -4.00000000E-015, 6.40000000E+000
12, 3.30000000E+001, -4.00000000E-015, 7.30000000E+000
13, 3.30000000E+001, -4.00000000E-015, 8.20000000E+000
14, 3.30000000E+001, -4.00000000E-015, 9.10000000E+000
15, 3.30000000E+001, -4.00000000E-015, 1.00000000E+001
16, 3.30000000E+001, -4.00000000E-015, 1.10000000E+001
17, 3.30000000E+001, -4.00000000E-015, 1.19000000E+001
18, 3.30000000E+001, -4.00000000E-015, 1.28000000E+001
19, 3.30000000E+001, -4.00000000E-015, 1.37000000E+001
20, 3.30000000E+001, -4.00000000E-015, 1.46000000E+001
** ... 25297 like lines cut
**
** Elements ++++++++++++++++++++++++++++++++++++++++++++++++
**
*Element, Type=S4, Elset=Shell_part-1
1, 5, 1, 114, 675
2, 6, 5, 675, 676
3, 7, 6, 676, 677
4, 8, 7, 677, 678
5, 9, 8, 678, 679
6, 10, 9, 679, 680
7, 11, 10, 680, 681
8, 12, 11, 681, 682
9, 13, 12, 682, 683
10, 14, 13, 683, 684
11, 15, 14, 684, 685
12, 16, 15, 685, 686
13, 17, 16, 686, 687
14, 18, 17, 687, 688
15, 19, 18, 688, 689
16, 20, 19, 689, 690
17, 21, 20, 690, 691
18, 22, 21, 691, 692
19, 23, 22, 692, 693
20, 24, 23, 693, 694
** ... 25061 like lines cut
*Element, Type=S3, Elset=Shell_part-1
7343, 11815, 11985, 11968
11645, 12975, 12988, 12969
11972, 11888, 11958, 11832
12551, 12989, 12996, 12995
20596, 22284, 22273, 22460
21950, 20857, 20856, 21097
22111, 20733, 20998, 20734
22902, 22216, 22169, 22312
**
** Node sets +++++++++++++++++++++++++++++++++++++++++++++++
**
*Nset, Nset=Internal_Selection-1_Rigid_Body-1
1, 3, 114, 115, 116, 117, 118, 119, 120, 121, 122, 123, 124, 125, 126, 127, 
128, 129, 130, 131, 132, 133, 134, 135, 136, 137, 138, 139, 140, 141, 142, 143, 
144, 145, 146, 147, 148, 149, 150, 151, 152, 153, 154, 155, 156, 157, 158, 159, 
160, 161, 162, 163, 164, 165, 166, 167, 168, 169, 170, 171, 172, 173, 174, 175, 
176, 177, 178, 179, 180, 181, 182, 183, 184, 185, 186, 187, 188, 189, 190, 191, 
192, 193, 194, 195, 196, 197, 198, 199, 200, 201, 202, 203, 204, 205, 206, 207, 
208, 209, 210, 211, 212, 213, 214, 215, 216, 217, 218, 219, 220, 221, 222, 223, 
224, 225, 226, 562, 563, 564, 565, 566, 567, 568, 569, 570, 571, 572, 573, 574, 
575, 576, 577, 578, 579, 580, 581, 582, 583, 584, 585, 586, 587, 588, 589, 590, 
591, 592, 593, 594, 595, 596, 597, 598, 599, 600, 601, 602, 603, 604, 605, 606, 
607, 608, 609, 610, 611, 612, 613, 614, 615, 616, 617, 618, 619, 620, 621, 622, 
623, 624, 625, 626, 627, 628, 629, 630, 631, 632, 633, 634, 635, 636, 637, 638, 
639, 640, 641, 642, 643, 644, 645, 646, 647, 648, 649, 650, 651, 652, 653, 654, 
655, 656, 657, 658, 659, 660, 661, 662, 663, 664, 665, 666, 667, 668, 669, 670, 
671, 672, 673, 674
*Nset, Nset=Internal_Selection-1_Rigid_Body-2
2, 4, 336, 337, 338, 339, 340, 341, 342, 343, 344, 345, 346, 347, 348, 349, 
350, 351, 352, 353, 354, 355, 356, 357, 358, 359, 360, 361, 362, 363, 364, 365, 
366, 367, 368, 369, 370, 371, 372, 373, 374, 375, 376, 377, 378, 379, 380, 381, 
382, 383, 384, 385, 386, 387, 388, 389, 390, 391, 392, 393, 394, 395, 396, 397, 
398, 399, 400, 401, 402, 403, 404, 405, 406, 407, 408, 409, 410, 411, 412, 413, 
414, 415, 416, 417, 418, 419, 420, 421, 422, 423, 424, 425, 426, 427, 428, 429, 
430, 431, 432, 433, 434, 435, 436, 437, 438, 439, 440, 441, 442, 443, 444, 445, 
446, 447, 448, 449, 450, 451, 452, 453, 454, 455, 456, 457, 458, 459, 460, 461, 
462, 463, 464, 465, 466, 467, 468, 469, 470, 471, 472, 473, 474, 475, 476, 477, 
478, 479, 480, 481, 482, 483, 484, 485, 486, 487, 488, 489, 490, 491, 492, 493, 
494, 495, 496, 497, 498, 499, 500, 501, 502, 503, 504, 505, 506, 507, 508, 509, 
510, 511, 512, 513, 514, 515, 516, 517, 518, 519, 520, 521, 522, 523, 524, 525, 
526, 527, 528, 529, 530, 531, 532, 533, 534, 535, 536, 537, 538, 539, 540, 541, 
542, 543, 544, 545, 546, 547, 548, 549, 550, 551, 552, 553, 554, 555, 556, 557, 
558, 559, 560, 561
*Nset, Nset=Node_Set-1
1, 3, 114, 115, 116, 117, 118, 119, 120, 121, 122, 123, 124, 125, 126, 127, 
128, 129, 130, 131, 132, 133, 134, 135, 136, 137, 138, 139, 140, 141, 142, 143, 
144, 145, 146, 147, 148, 149, 150, 151, 152, 153, 154, 155, 156, 157, 158, 159, 
160, 161, 162, 163, 164, 165, 166, 167, 168, 169, 170, 171, 172, 173, 174, 175, 
176, 177, 178, 179, 180, 181, 182, 183, 184, 185, 186, 187, 188, 189, 190, 191, 
192, 193, 194, 195, 196, 197, 198, 199, 200, 201, 202, 203, 204, 205, 206, 207, 
208, 209, 210, 211, 212, 213, 214, 215, 216, 217, 218, 219, 220, 221, 222, 223, 
224, 225, 226, 562, 563, 564, 565, 566, 567, 568, 569, 570, 571, 572, 573, 574, 
575, 576, 577, 578, 579, 580, 581, 582, 583, 584, 585, 586, 587, 588, 589, 590, 
591, 592, 593, 594, 595, 596, 597, 598, 599, 600, 601, 602, 603, 604, 605, 606, 
607, 608, 609, 610, 611, 612, 613, 614, 615, 616, 617, 618, 619, 620, 621, 622, 
623, 624, 625, 626, 627, 628, 629, 630, 631, 632, 633, 634, 635, 636, 637, 638, 
639, 640, 641, 642, 643, 644, 645, 646, 647, 648, 649, 650, 651, 652, 653, 654, 
655, 656, 657, 658, 659, 660, 661, 662, 663, 664, 665, 666, 667, 668, 669, 670, 
671, 672, 673, 674
*Nset, Nset=Reference_Point-1_ref_25314
25314
*Nset, Nset=Reference_Point-1_rot_25315
25315
*Nset, Nset=Reference_Point-2_ref_25316
25316
*Nset, Nset=Reference_Point-2_rot_25317
25317
**
** Element sets ++++++++++++++++++++++++++++++++++++++++++++
**
**
** Surfaces ++++++++++++++++++++++++++++++++++++++++++++++++
**
**
** Physical constants ++++++++++++++++++++++++++++++++++++++
**
**
** Materials +++++++++++++++++++++++++++++++++++++++++++++++
**
*Material, Name=Material-1
*Elastic
208000, 0.3
*Plastic
250, 0
**
** Sections ++++++++++++++++++++++++++++++++++++++++++++++++
**
*Shell section, Elset=Shell_part-1, Material=Material-1, Offset=0
0.1
**
** Pre-tension sections ++++++++++++++++++++++++++++++++++++
**
**
** Constraints +++++++++++++++++++++++++++++++++++++++++++++
**
*Rigid body, Nset=Internal_Selection-1_Rigid_Body-1, Ref node=25314, Rot node=25315
*Rigid body, Nset=Internal_Selection-1_Rigid_Body-2, Ref node=25316, Rot node=25317
**
** Surface interactions ++++++++++++++++++++++++++++++++++++
**
**
** Contact pairs +++++++++++++++++++++++++++++++++++++++++++
**
**
** Amplitudes ++++++++++++++++++++++++++++++++++++++++++++++
**
**
** Initial conditions ++++++++++++++++++++++++++++++++++++++
**
**
** Steps +++++++++++++++++++++++++++++++++++++++++++++++++++
**
**
** Step-1 ++++++++++++++++++++++++++++++++++++++++++++++++++
**
*Step, Inc=100
*Static
0.1, 1, 1E-05, 0.1
**
** Controls ++++++++++++++++++++++++++++++++++++++++++++++++
**
**
** Output frequency ++++++++++++++++++++++++++++++++++++++++
**
*Output, Frequency=1
**
** Boundary conditions +++++++++++++++++++++++++++++++++++++
**
*Boundary, op=New
** Name: Fixed-1
*Boundary
25316, 1, 3, 0
25317, 1, 3, 0
** Name: Displacement_Rotation-1
*Boundary
25314, 1, 1, 0
25314, 2, 2, 0
25315, 1, 1, 0
25315, 2, 2, 0
25315, 3, 3, 0
** Name: Displacement_Rotation-2
*Boundary
25314, 3, 3, 0.1
**
** Loads +++++++++++++++++++++++++++++++++++++++++++++++++++
**
*Cload, op=New
*Dload, op=New
**
** Defined fields ++++++++++++++++++++++++++++++++++++++++++
**
**
** History outputs +++++++++++++++++++++++++++++++++++++++++
**
*Node print, Nset=Reference_Point-2_ref_25316, Totals=Yes
RF
*Node print, Nset=Reference_Point-2_rot_25317, Totals=Yes
RF
*Node print, Nset=Reference_Point-1_ref_25314, Totals=Yes
U
*Node print, Nset=Reference_Point-1_rot_25315, Totals=Yes
U
** Name: RP-Only: Deactivated
** Name: RP2-Yes: Deactivated
** Name: RP2-No: Deactivated
** Name: RP2-Only: Deactivated
*Node print, Nset=Reference_Point-1_ref_25314, Totals=Yes
RF
*Node print, Nset=Reference_Point-1_rot_25315, Totals=Yes
RF
*Node print, Nset=Node_Set-1
U
*Node print, Nset=Node_Set-1
RF
**
** Field outputs +++++++++++++++++++++++++++++++++++++++++++
**
*Node file
RF, U
*El file
S, E, NOE
**
** End step ++++++++++++++++++++++++++++++++++++++++++++++++
**
*End step
